function mpc = case2000_BRE1
%CASE2000_BRE1

%% MATPOWER Case Format : Version 2
mpc.version = '2';

%%-----  Power Flow Data  -----%%
%% system MVA base
mpc.baseMVA = 100;

%% bus data
%	bus_i	type	Pd	Qd	Gs	Bs	area	Vm	Va	baseKV	zone	Vmax	Vmin	lam_P	lam_Q	mu_Vmax	mu_Vmin
mpc.bus = [
	3001001	1	20.78	5.89	0	0	1	1	2.18354336	115	9	1.1	0.9	15.9179	0.0000	0.0000	0.0000;
	3001002	1	15.41	4.37	0	0	1	1	28.885386	115	9	1.1	0.9	0.0577	0.0000	0.0000	0.0000;
	3001003	1	0	0	0	0	1	1	22.7814478	115	9	1.1	0.9	-0.7151	0.0000	0.0000	0.0000;
	3001004	2	0	0	0	0	1	1	13.6169328	230	9	1.1	0.9	-2.2616	0.0000	0.0000	0.0000;
	3001005	1	0	0	0	0	1	1	33.5287179	115	9	1.1	0.9	0.0381	0.0000	0.0000	0.0000;
	3001006	2	0	0	0	0	1	1	36.419004	13.8	9	1.1	0.9	0.0381	0.0000	0.0000	0.0000;
	3001007	1	7.01	1.99	0	-0.77	1	1	28.470257	115	9	1.1	0.9	0.0762	0.0000	0.0000	0.0000;
	3001008	1	0	0	0	0	1	1	31.6123074	115	9	1.1	0.9	-0.0000	0.0000	0.0000	0.0000;
	3001009	2	0	0	0	0	1	1	31.6123074	13.8	9	1.1	0.9	-0.0000	0.0000	0.0000	0.0000;
	3001010	1	0	0	0	-3.33	1	1	30.2041648	115	9	1.1	0.9	0.0524	0.0000	0.0000	0.0000;
	3001011	2	0	0	0	0	1	1	32.0639858	22	9	1.1	0.9	0.0524	0.0000	0.0000	0.0000;
	3001012	1	2.99	0.85	0	11.3	1	1	14.1842257	115	9	1.1	0.9	3.3740	0.0000	0.0000	0.0000;
	3001013	1	29.23	8.28	0	0	1	1	24.4576925	115	9	1.1	0.9	0.1175	0.0000	0.0000	0.0000;
	3001014	1	2.22	0.63	0	0	1	1	25.1248332	115	9	1.1	0.9	0.0780	0.0000	0.0000	0.0000;
	3001015	1	7.51	2.13	0	0	1	1	33.3741862	115	9	1.1	0.9	0.0626	0.0000	0.0000	0.0000;
	3001016	1	2.89	0.82	0	39.43	1	1	39.9349698	115	9	1.1	0.9	0.0000	0.0000	0.0000	0.0000;
	3001017	1	18.34	5.2	0	0	1	1	9.8630128	115	9	1.1	0.9	-9.1502	0.0000	0.0000	0.0000;
	3001018	1	0.07	0.02	0	0	1	1	11.4781504	115	9	1.1	0.9	-5.6743	0.0000	0.0000	0.0000;
	3001019	1	61.78	17.5	0	261.44	1	1	4.26057044	115	9	1.1	0.9	14.7509	0.0000	0.0000	0.0000;
	3001020	1	0	0	0	71.32	1	1	26.6186412	115	9	1.1	0.9	3.6515	0.0000	0.0000	0.0000;
	3001021	2	0	0	0	0	1	1	35.548154	13.8	9	1.1	0.9	3.6515	0.0000	0.0000	0.0000;
	3001022	1	0	0	0	0	1	1	24.7148945	115	9	1.1	0.9	-0.4984	0.0000	0.0000	0.0000;
	3001023	2	0	0	0	0	1	1	24.7148945	13.8	9	1.1	0.9	-0.4984	0.0000	0.0000	0.0000;
	3001024	1	63.04	17.86	0	0	1	1	12.8266319	115	9	1.1	0.9	-2.7779	0.0000	0.0000	0.0000;
	3001025	1	0	0	0	0	1	1	29.5502714	115	9	1.1	0.9	0.0000	0.0000	0.0000	0.0000;
	3001026	2	0	0	0	0	1	1	36.2114411	13.8	9	1.1	0.9	0.0000	0.0000	0.0000	0.0000;
	3001027	1	101.21	28.68	0	88.7	1	1	12.9060564	115	9	1.1	0.9	9.1709	0.0000	0.0000	0.0000;
	3001028	1	10.01	2.84	0	0	1	1	29.160765	115	9	1.1	0.9	0.0000	0.0000	0.0000	0.0000;
	3001029	1	83.18	23.57	0	61.2	1	1	14.4500847	115	9	1.1	0.9	-3.8703	0.0000	0.0000	0.0000;
	3001030	1	24.63	6.98	0	0	1	1	27.5278148	115	9	1.1	0.9	0.0243	0.0000	0.0000	0.0000;
	3001031	1	9.25	2.62	0	0	1	1	25.7286383	115	9	1.1	0.9	0.0970	0.0000	0.0000	0.0000;
	3001032	1	0	0	0	0	1	1	25.4346994	115	9	1.1	0.9	-0.1237	0.0000	0.0000	0.0000;
	3001033	2	0	0	0	61.95	1	1	18.1939682	230	9	1.1	0.9	7.4547	0.0000	0.0000	0.0000;
	3001034	1	0	0	0	0	1	1	39.431867	115	9	1.1	0.9	0.0241	0.0000	0.0000	0.0000;
	3001035	2	0	0	0	0	1	1	43.8129315	13.8	9	1.1	0.9	0.0241	0.0000	0.0000	0.0000;
	3001036	1	13.6	3.85	0	0	1	1	26.6112064	115	9	1.1	0.9	-0.0979	0.0000	0.0000	0.0000;
	3001037	1	102.24	28.97	0	0	1	1	5.61858729	115	9	1.1	0.9	22.4305	0.0000	0.0000	0.0000;
	3001038	1	0	0	0	0	1	1	29.9421704	115	9	1.1	0.9	-0.0000	0.0000	0.0000	0.0000;
	3001039	2	0	0	0	0	1	1	31.3836167	22	9	1.1	0.9	-0.0000	0.0000	0.0000	0.0000;
	3001040	1	44.36	12.57	0	0	1	1	14.2184768	115	9	1.1	0.9	5.7862	0.0000	0.0000	0.0000;
	3001041	1	0	0	0	0	1	1	38.1159279	115	9	1.1	0.9	0.1598	0.0000	0.0000	0.0000;
	3001042	2	0	0	0	0	1	1	45.8846266	13.8	9	1.1	0.9	0.1598	0.0000	0.0000	0.0000;
	3001043	2	0	0	0	0	1	1	42.4430611	13.8	9	1.1	0.9	0.1598	0.0000	0.0000	0.0000;
	3001044	1	14.68	4.16	0	0	1	1	23.9660319	115	9	1.1	0.9	-0.0000	0.0000	0.0000	0.0000;
	3001045	1	98.56	27.93	0	0	1	1	3.56517114	115	9	1.1	0.9	14.1940	0.0000	0.0000	0.0000;
	3001046	1	11.08	3.14	0	13.12	1	1	17.0761609	115	9	1.1	0.9	-1.1737	0.0000	0.0000	0.0000;
	3001047	1	0	0	0	0	1	1	23.0173375	115	9	1.1	0.9	0.1269	0.0000	0.0000	0.0000;
	3001048	2	0	0	0	0	1	1	26.6931744	18	9	1.1	0.9	0.1269	0.0000	0.0000	0.0000;
	3001049	2	0	0	0	0	1	1	29.6037709	18	9	1.1	0.9	0.1269	0.0000	0.0000	0.0000;
	3001050	2	0	0	0	0	1	1	24.544944	18	9	1.1	0.9	0.1269	0.0000	0.0000	0.0000;
	3001051	2	0	0	0	0	1	1	24.9888887	18	9	1.1	0.9	0.1269	0.0000	0.0000	0.0000;
	3001052	2	0	0	0	0	1	1	24.2866293	18	9	1.1	0.9	0.1269	0.0000	0.0000	0.0000;
	3001053	2	0	0	0	0	1	1	16.945937	230	9	1.1	0.9	5.4590	0.0000	0.0000	0.0000;
	3001054	1	14.99	4.25	0	0	1	1	22.1819573	115	9	1.1	0.9	0.2476	0.0000	0.0000	0.0000;
	3001055	1	3.98	1.13	0	0	1	1	22.1396976	115	9	1.1	0.9	-0.6176	0.0000	0.0000	0.0000;
	3001056	1	0	0	0	33.22	1	1	23.8352263	115	9	1.1	0.9	0.4961	0.0000	0.0000	0.0000;
	3001057	2	0	0	0	0	1	1	32.8558739	18	9	1.1	0.9	0.4961	0.0000	0.0000	0.0000;
	3001058	1	13.46	3.81	0	0	1	1	29.1860412	115	9	1.1	0.9	0.1964	0.0000	0.0000	0.0000;
	3001059	2	0	0	0	0	1	1	29.630623	22	9	1.1	0.9	0.1964	0.0000	0.0000	0.0000;
	3001060	2	0	0	0	0	1	1	29.3196114	22	9	1.1	0.9	0.1964	0.0000	0.0000	0.0000;
	3001061	1	0	0	0	0	1	1	32.3286883	115	9	1.1	0.9	0.0000	0.0000	0.0000	0.0000;
	3001062	2	0	0	0	0	1	1	32.3286883	13.8	9	1.1	0.9	0.0000	0.0000	0.0000	0.0000;
	3001063	2	0	0	0	0	1	1	42.1291879	13.8	9	1.1	0.9	0.0000	0.0000	0.0000	0.0000;
	3001064	1	123.76	35.07	0	0	1	1	1.76403794	115	9	1.1	0.9	15.3653	0.0000	0.0000	0.0000;
	3001065	1	0	0	0	0	1	1	37.5787701	115	9	1.1	0.9	0.2087	0.0000	0.0000	0.0000;
	3001066	2	0	0	0	0	1	1	47.6335349	13.8	9	1.1	0.9	0.2087	0.0000	0.0000	0.0000;
	3001067	1	101.55	28.77	0	0	1	1	36.752957	115	9	1.1	0.9	0.1216	0.0000	0.0000	0.0000;
	3001068	1	59.4	16.83	0	0	1	1	31.7247279	115	9	1.1	0.9	-0.0348	0.0000	0.0000	0.0000;
	3001069	1	0	0	0	0	1	1	31.827624	115	9	1.1	0.9	0.1040	0.0000	0.0000	0.0000;
	3001070	2	0	0	0	0	1	1	38.2648048	13.8	9	1.1	0.9	0.1040	0.0000	0.0000	0.0000;
	3001071	1	91.46	25.91	0	0	1	1	2.67974673	115	9	1.1	0.9	16.3513	0.0000	0.0000	0.0000;
	3001072	2	0	0	0	0	1	1	5.50373904	18	9	1.1	0.9	16.3513	0.0000	0.0000	0.0000;
	3001073	2	0	0	0	0	1	1	7.38717118	18	9	1.1	0.9	16.3513	0.0000	0.0000	0.0000;
	3001074	2	0	0	0	0	1	1	6.79238575	18	9	1.1	0.9	16.3513	0.0000	0.0000	0.0000;
	3001075	2	0	0	0	0	1	1	5.97137711	18	9	1.1	0.9	16.3513	0.0000	0.0000	0.0000;
	3001076	2	0	0	0	0	1	1	4.31020516	18	9	1.1	0.9	16.3513	0.0000	0.0000	0.0000;
	3001077	2	0	0	0	0	1	1	6.65830309	18	9	1.1	0.9	16.3513	0.0000	0.0000	0.0000;
	3001078	2	0	0	0	0	1	1	5.81292374	18	9	1.1	0.9	16.3513	0.0000	0.0000	0.0000;
	3001079	2	0	0	0	0	1	1	-20.0334799	500	9	1.1	0.9	22.8333	0.0000	0.0000	0.0000;
	3001080	2	0	0	0	0	1	1	5.99693859	18	9	1.1	0.9	16.3513	0.0000	0.0000	0.0000;
	3001081	2	0	0	0	42.78	1	1	13.9560177	230	9	1.1	0.9	7.2751	0.0000	0.0000	0.0000;
	3001082	2	0	0	0	0	1	1	33.394746	115	9	1.1	0.9	0.0357	0.0000	0.0000	0.0000;
	3001083	1	39.95	11.32	0	32.03	1	1	27.9634636	115	9	1.1	0.9	0.0175	0.0000	0.0000	0.0000;
	3001084	2	0	0	0	0	1	1	23.2664697	115	9	1.1	0.9	5.8021	0.0000	0.0000	0.0000;
	3001085	1	21.3	6.03	0	0	1	1	20.4215912	115	9	1.1	0.9	0.0912	0.0000	0.0000	0.0000;
	3001086	1	39.67	11.24	0	37.39	1	1	20.2681486	115	9	1.1	0.9	0.1026	0.0000	0.0000	0.0000;
	3001087	1	0.91	0.26	0	4.9	1	1	23.9227477	115	9	1.1	0.9	0.3928	0.0000	0.0000	0.0000;
	3001088	2	0	0	0	0	1	1	28.7113582	115	9	1.1	0.9	-0.0720	0.0000	0.0000	0.0000;
	3001089	1	40.6	11.5	0	0	1	1	20.3508256	115	9	1.1	0.9	-0.3034	0.0000	0.0000	0.0000;
	3001090	2	0	0	0	0	1	1	16.3965153	115	9	1.1	0.9	-0.0000	0.0000	0.0000	0.0000;
	3001091	1	11.62	3.29	0	0	1	1	20.6948971	161	9	1.1	0.9	4.2111	0.0000	0.0000	0.0000;
	3002001	1	48.36	13.7	0	0	2	1	-51.8299534	161	11	1.1	0.9	23.0195	0.0000	0.0000	0.0000;
	3002002	1	0	0	0	0	2	1	-50.4724698	500	11	1.1	0.9	23.0114	0.0000	0.0000	0.0000;
	3002003	1	0	0	0	0	2	1	-52.3915288	161	11	1.1	0.9	23.0121	0.0000	0.0000	0.0000;
	3002004	2	0	0	0	0	2	1	-49.4851854	13.8	11	1.1	0.9	23.0114	0.0000	0.0000	0.0000;
	3002005	2	0	0	0	0	2	1	-49.3181687	13.8	11	1.1	0.9	23.0114	0.0000	0.0000	0.0000;
	3002006	2	0	0	0	0	2	1	-48.668285	13.8	11	1.1	0.9	23.0114	0.0000	0.0000	0.0000;
	3002007	1	9.54	2.7	0	0	2	1	-51.5345172	161	11	1.1	0.9	23.0199	0.0000	0.0000	0.0000;
	3002008	1	8.06	2.28	0	0	2	1	14.1827419	161	10	1.1	0.9	1.3838	0.0000	0.0000	0.0000;
	3002009	1	39.14	11.09	0	131.5	2	1	-20.2122617	161	11	1.1	0.9	22.6594	0.0000	0.0000	0.0000;
	3002010	1	56.81	16.09	0	28.69	2	1	9.31598345	161	10	1.1	0.9	-0.0000	0.0000	0.0000	0.0000;
	3002011	1	0	0	0	0	2	1	5.62003972	500	10	1.1	0.9	20.0256	0.0000	0.0000	0.0000;
	3002012	1	0	0	0	0	2	1	14.9862152	161	10	1.1	0.9	0.0000	0.0000	0.0000	0.0000;
	3002013	2	0	0	0	0	2	1	8.94971634	18	10	1.1	0.9	20.0256	0.0000	0.0000	0.0000;
	3002014	1	25.43	7.2	0	0	2	1	14.9059765	161	10	1.1	0.9	2.1864	0.0000	0.0000	0.0000;
	3002015	1	4.69	1.33	0	0	2	1	-48.5614872	161	11	1.1	0.9	22.8605	0.0000	0.0000	0.0000;
	3002016	1	69.27	19.63	0	0	2	1	-57.8735857	161	11	1.1	0.9	23.0095	0.0000	0.0000	0.0000;
	3002017	1	0	0	0	-17.18	2	1	5.22245692	500	10	1.1	0.9	14.8420	0.0000	0.0000	0.0000;
	3002018	1	0	0	0	0	2	1	9.36995275	161	10	1.1	0.9	9.7504	0.0000	0.0000	0.0000;
	3002019	2	0	0	0	0	2	1	6.69883165	20	10	1.1	0.9	14.8420	0.0000	0.0000	0.0000;
	3002020	1	47.97	13.59	0	0	2	1	-23.1750218	161	11	1.1	0.9	22.3337	0.0000	0.0000	0.0000;
	3002021	1	0	0	0	0	2	1	-48.6974426	500	11	1.1	0.9	23.0196	0.0000	0.0000	0.0000;
	3002022	1	11.56	3.28	0	0	2	1	-50.4941207	161	11	1.1	0.9	23.0196	0.0000	0.0000	0.0000;
	3002023	2	0	0	0	0	2	1	-48.2095691	13.8	11	1.1	0.9	23.0196	0.0000	0.0000	0.0000;
	3002024	2	0	0	0	0	2	1	-48.0027313	13.8	11	1.1	0.9	23.0196	0.0000	0.0000	0.0000;
	3002025	1	39.62	11.23	0	0	2	1	-22.4977229	161	11	1.1	0.9	22.3426	0.0000	0.0000	0.0000;
	3002026	1	18.57	5.26	0	0	2	1	8.74657974	161	10	1.1	0.9	9.8996	0.0000	0.0000	0.0000;
	3002027	1	3.55	1.01	0	0	2	1	-52.1721623	161	11	1.1	0.9	23.0195	0.0000	0.0000	0.0000;
	3002028	1	14.24	4.03	0	0	2	1	-25.5330784	161	11	1.1	0.9	22.4654	0.0000	0.0000	0.0000;
	3002029	1	3.2	0.91	0	0	2	1	16.6341047	161	10	1.1	0.9	2.8255	0.0000	0.0000	0.0000;
	3002030	1	47.15	13.36	0	0	2	1	-55.0252083	161	11	1.1	0.9	23.0190	0.0000	0.0000	0.0000;
	3002031	1	5.77	1.63	0	0	2	1	16.5271941	161	10	1.1	0.9	1.3460	0.0000	0.0000	0.0000;
	3002032	1	3.35	0.95	0	0	2	1	-51.0091473	161	11	1.1	0.9	23.0200	0.0000	0.0000	0.0000;
	3002033	1	13.57	3.85	0	0	2	1	-55.9667847	161	11	1.1	0.9	23.0186	0.0000	0.0000	0.0000;
	3002034	1	5.34	1.51	0	0	2	1	-56.5984768	161	11	1.1	0.9	23.0104	0.0000	0.0000	0.0000;
	3002035	1	4.68	1.33	0	0	2	1	9.59271695	161	10	1.1	0.9	-0.1594	0.0000	0.0000	0.0000;
	3002036	1	41.59	11.78	0	0	2	1	-21.9801563	161	11	1.1	0.9	22.3631	0.0000	0.0000	0.0000;
	3002037	1	3.5	0.99	0	0	2	1	-48.8636233	161	11	1.1	0.9	22.8684	0.0000	0.0000	0.0000;
	3002038	1	2.6	0.74	0	0	2	1	-53.1536484	161	11	1.1	0.9	23.0133	0.0000	0.0000	0.0000;
	3002039	1	5.56	1.58	0	0	2	1	-45.9602138	161	11	1.1	0.9	22.8405	0.0000	0.0000	0.0000;
	3002040	1	15.9	4.51	0	0	2	1	-51.1736649	161	11	1.1	0.9	23.0198	0.0000	0.0000	0.0000;
	3002041	1	0	0	0	0	2	1	17.3172756	161	10	1.1	0.9	1.3293	0.0000	0.0000	0.0000;
	3002042	2	0	0	0	0	2	1	20.8956354	18	10	1.1	0.9	1.3293	0.0000	0.0000	0.0000;
	3002043	1	4.24	1.2	0	0	2	1	-57.1562068	161	11	1.1	0.9	23.0100	0.0000	0.0000	0.0000;
	3002044	1	27.4	7.76	0	0	2	1	-52.5603582	161	11	1.1	0.9	22.9416	0.0000	0.0000	0.0000;
	3002045	1	22.61	6.4	0	0	2	1	-23.7141907	161	11	1.1	0.9	22.3606	0.0000	0.0000	0.0000;
	3002046	1	22.13	6.27	0	0	2	1	-55.942129	161	11	1.1	0.9	23.0107	0.0000	0.0000	0.0000;
	3002047	1	14.96	4.24	0	0	2	1	-52.9831383	161	11	1.1	0.9	23.0119	0.0000	0.0000	0.0000;
	3002048	1	6.42	1.82	0	0	2	1	20.3195761	161	10	1.1	0.9	2.3129	0.0000	0.0000	0.0000;
	3002049	1	11.57	3.28	0	0	2	1	-9.89228339	161	10	1.1	0.9	-0.0000	0.0000	0.0000	0.0000;
	3002050	1	3.66	1.04	0	0	2	1	-54.4753587	161	11	1.1	0.9	23.0192	0.0000	0.0000	0.0000;
	3002051	1	17.85	5.06	0	0	2	1	-35.2946103	161	11	1.1	0.9	22.6334	0.0000	0.0000	0.0000;
	3002052	1	24.84	7.04	0	0	2	1	13.9623566	161	10	1.1	0.9	0.7153	0.0000	0.0000	0.0000;
	3002053	1	29.13	8.25	0	0	2	1	-46.6774054	161	11	1.1	0.9	22.9155	0.0000	0.0000	0.0000;
	3002054	1	0	0	0	0	2	1	-21.6756008	500	11	1.1	0.9	22.2356	0.0000	0.0000	0.0000;
	3002055	1	49.62	14.06	0	0	2	1	-22.2385248	161	11	1.1	0.9	22.2971	0.0000	0.0000	0.0000;
	3002056	2	0	0	0	0	2	1	-21.4582321	18	11	1.1	0.9	22.2356	0.0000	0.0000	0.0000;
	3002057	2	0	0	0	0	2	1	-18.4519649	18	11	1.1	0.9	22.2356	0.0000	0.0000	0.0000;
	3002058	1	0	0	0	0	2	1	17.2246847	161	10	1.1	0.9	2.7814	0.0000	0.0000	0.0000;
	3002059	2	0	0	0	0	2	1	21.8473082	13.8	10	1.1	0.9	2.7814	0.0000	0.0000	0.0000;
	3002060	1	3.8	1.08	0	0	2	1	-53.3235762	161	11	1.1	0.9	23.0192	0.0000	0.0000	0.0000;
	3002061	1	0	0	0	0	2	1	-2.19975776	161	10	1.1	0.9	-0.0000	0.0000	0.0000	0.0000;
	3002062	2	0	0	0	0	2	1	-2.19975776	18	10	1.1	0.9	-0.0000	0.0000	0.0000	0.0000;
	3002063	1	65.62	18.59	0	67.92	2	1	-55.0066226	161	11	1.1	0.9	23.0111	0.0000	0.0000	0.0000;
	3002064	1	10.05	2.85	0	0	2	1	-51.919706	161	11	1.1	0.9	23.0194	0.0000	0.0000	0.0000;
	3002065	1	78.36	22.2	0	90.13	2	1	-51.7626722	161	11	1.1	0.9	22.9020	0.0000	0.0000	0.0000;
	3002066	1	7.11	2.02	0	0	2	1	10.3264275	161	10	1.1	0.9	-0.2222	0.0000	0.0000	0.0000;
	3002067	1	53.97	15.29	0	0	2	1	-22.5370776	161	11	1.1	0.9	22.4053	0.0000	0.0000	0.0000;
	3002068	1	5.76	1.63	0	0	2	1	-20.8976155	161	11	1.1	0.9	22.6665	0.0000	0.0000	0.0000;
	3002069	1	21.92	6.21	0	87.65	2	1	-57.4199059	161	11	1.1	0.9	23.0089	0.0000	0.0000	0.0000;
	3002070	1	0	0	0	0	2	1	-20.7495609	161	11	1.1	0.9	22.7636	0.0000	0.0000	0.0000;
	3002071	2	0	0	0	0	2	1	-15.8438963	18	11	1.1	0.9	22.7636	0.0000	0.0000	0.0000;
	3002072	1	9.71	2.75	0	0	2	1	-55.6436486	161	11	1.1	0.9	23.0046	0.0000	0.0000	0.0000;
	3002073	1	0	0	0	0	2	1	11.1510603	161	10	1.1	0.9	-0.2705	0.0000	0.0000	0.0000;
	3002074	1	0	0	0	0	2	1	12.2923793	115	10	1.1	0.9	0.1067	0.0000	0.0000	0.0000;
	3002075	1	0	0	0	0	2	1	12.2923793	115	10	1.1	0.9	0.1067	0.0000	0.0000	0.0000;
	3002076	2	0	0	0	0	2	1	11.1510603	24	10	1.1	0.9	-0.2705	0.0000	0.0000	0.0000;
	3002077	1	0	0	0	0	2	1	-45.3199631	161	11	1.1	0.9	22.8322	0.0000	0.0000	0.0000;
	3002078	2	0	0	0	0	2	1	-40.7183241	13.8	11	1.1	0.9	22.8322	0.0000	0.0000	0.0000;
	3002079	1	4.48	1.27	0	0	2	1	13.7102986	161	10	1.1	0.9	0.9525	0.0000	0.0000	0.0000;
	3002080	1	16.93	4.8	0	0	2	1	-40.2356561	161	11	1.1	0.9	22.7258	0.0000	0.0000	0.0000;
	3002081	1	4.46	1.26	0	0	2	1	-54.4797329	161	11	1.1	0.9	23.0154	0.0000	0.0000	0.0000;
	3002082	1	59.03	16.73	0	0	2	1	-21.4594705	161	11	1.1	0.9	22.4351	0.0000	0.0000	0.0000;
	3002083	2	0	0	0	0	2	1	-19.8197799	20	11	1.1	0.9	22.4351	0.0000	0.0000	0.0000;
	3002084	2	0	0	0	0	2	1	-19.3943015	20	11	1.1	0.9	22.4351	0.0000	0.0000	0.0000;
	3002085	2	0	0	0	0	2	1	-19.8006431	20	11	1.1	0.9	22.4351	0.0000	0.0000	0.0000;
	3002086	1	2.19	0.62	0	0	2	1	-43.7724583	161	11	1.1	0.9	22.7961	0.0000	0.0000	0.0000;
	3002087	1	7.9	2.24	0	0	2	1	13.5103386	161	10	1.1	0.9	0.4989	0.0000	0.0000	0.0000;
	3002088	1	0	0	0	0	2	1	-20.6488347	161	11	1.1	0.9	22.7020	0.0000	0.0000	0.0000;
	3002089	2	0	0	0	0	2	1	-15.8468479	24	11	1.1	0.9	22.7020	0.0000	0.0000	0.0000;
	3002090	1	2.42	0.69	0	0	2	1	-52.6485848	161	11	1.1	0.9	23.0195	0.0000	0.0000	0.0000;
	3002091	1	17.05	4.83	0	0	2	1	8.94120578	161	10	1.1	0.9	-0.0795	0.0000	0.0000	0.0000;
	3002092	1	24.11	6.83	0	0	2	1	-54.1107899	161	11	1.1	0.9	23.0115	0.0000	0.0000	0.0000;
	3002093	1	0	0	0	0	2	1	13.5832166	161	10	1.1	0.9	4.5780	0.0000	0.0000	0.0000;
	3002094	2	0	0	0	0	2	1	14.1754831	13.8	10	1.1	0.9	4.5780	0.0000	0.0000	0.0000;
	3002095	2	0	0	0	0	2	1	15.9067295	13.8	10	1.1	0.9	4.5780	0.0000	0.0000	0.0000;
	3002096	1	0	0	0	-63.14	2	1	11.8010213	500	10	1.1	0.9	9.7787	0.0000	0.0000	0.0000;
	3002097	1	0	0	0	0	2	1	12.6958829	230	10	1.1	0.9	8.5756	0.0000	0.0000	0.0000;
	3002098	1	0	0	0	0	2	1	19.453846	161	10	1.1	0.9	4.8883	0.0000	0.0000	0.0000;
	3002099	2	0	0	0	0	2	1	12.0002388	18	10	1.1	0.9	9.7787	0.0000	0.0000	0.0000;
	3002100	2	0	0	0	0	2	1	15.4407357	18	10	1.1	0.9	9.7787	0.0000	0.0000	0.0000;
	3002101	1	0	0	0	0	2	1	-51.4214206	500	11	1.1	0.9	23.0086	0.0000	0.0000	0.0000;
	3002102	1	0	0	0	0	2	1	-52.6919437	161	11	1.1	0.9	22.9983	0.0000	0.0000	0.0000;
	3002103	2	0	0	0	0	2	1	-50.8452505	20	11	1.1	0.9	23.0086	0.0000	0.0000	0.0000;
	3002104	2	0	0	0	0	2	1	-50.6666931	20	11	1.1	0.9	23.0086	0.0000	0.0000	0.0000;
	3002105	2	0	0	0	0	2	1	-50.2304237	20	11	1.1	0.9	23.0086	0.0000	0.0000	0.0000;
	3002106	1	14.4	4.08	0	0	2	1	-56.4424087	161	11	1.1	0.9	23.0182	0.0000	0.0000	0.0000;
	3002107	1	74.15	21.01	0	0	2	1	-53.6123632	161	11	1.1	0.9	22.9939	0.0000	0.0000	0.0000;
	3002108	1	2.14	0.61	0	0	2	1	-7.31305012	161	10	1.1	0.9	0.0000	0.0000	0.0000	0.0000;
	3002109	1	33.81	9.58	0	0	2	1	-22.7253801	161	11	1.1	0.9	22.5807	0.0000	0.0000	0.0000;
	3002110	1	8.59	2.43	0	51.92	2	1	-46.8290303	161	11	1.1	0.9	22.8472	0.0000	0.0000	0.0000;
	3002111	1	13.95	3.95	0	0	2	1	-25.0747342	161	11	1.1	0.9	25.3337	0.0000	0.0000	0.0000;
	3002112	1	4.54	1.29	0	0	2	1	-28.5453438	161	11	1.1	0.9	22.5165	0.0000	0.0000	0.0000;
	3002113	1	0	0	0	0	2	1	-48.4454035	500	11	1.1	0.9	23.0205	0.0000	0.0000	0.0000;
	3002114	1	70.78	20.05	0	0	2	1	-49.6198847	161	11	1.1	0.9	23.0203	0.0000	0.0000	0.0000;
	3002115	2	0	0	0	0	2	1	-47.2253436	13.8	11	1.1	0.9	23.0205	0.0000	0.0000	0.0000;
	3002116	2	0	0	0	0	2	1	-47.8094993	13.8	11	1.1	0.9	23.0205	0.0000	0.0000	0.0000;
	3002117	2	0	0	0	0	2	1	-47.0326357	13.8	11	1.1	0.9	23.0205	0.0000	0.0000	0.0000;
	3002118	2	0	0	0	0	2	1	-46.8808822	13.8	11	1.1	0.9	23.0205	0.0000	0.0000	0.0000;
	3002119	2	0	0	0	0	2	1	-47.6713972	13.8	11	1.1	0.9	23.0205	0.0000	0.0000	0.0000;
	3002120	2	0	0	0	0	2	1	-46.9418376	13.8	11	1.1	0.9	23.0205	0.0000	0.0000	0.0000;
	3002121	1	2.33	0.66	0	0	2	1	-51.7159384	161	11	1.1	0.9	23.0197	0.0000	0.0000	0.0000;
	3002122	1	6.72	1.9	0	0	2	1	-52.6805691	161	11	1.1	0.9	23.0196	0.0000	0.0000	0.0000;
	3002123	2	0	0	0	0	2	1	17.9894686	161	10	1.1	0.9	1.7990	0.0000	0.0000	0.0000;
	3002124	1	21.29	6.03	0	0	2	1	-57.3086445	161	11	1.1	0.9	23.0175	0.0000	0.0000	0.0000;
	3002125	1	4.06	1.15	0	0	2	1	-56.0624563	161	11	1.1	0.9	22.9696	0.0000	0.0000	0.0000;
	3002126	1	14.24	4.03	0	0	2	1	-54.0356384	161	11	1.1	0.9	22.9223	0.0000	0.0000	0.0000;
	3002127	2	0	0	0	-361.6	2	1	0.665609494	500	10	1.1	0.9	17.7171	0.0000	0.0000	0.0000;
	3002128	1	0	0	0	0	2	1	5.02905381	161	10	1.1	0.9	13.4959	0.0000	0.0000	0.0000;
	3002129	1	6.63	1.88	0	0	2	1	-56.2355812	161	11	1.1	0.9	23.0184	0.0000	0.0000	0.0000;
	3002130	1	0	0	0	0	2	1	-7.10568888	161	10	1.1	0.9	0.7190	0.0000	0.0000	0.0000;
	3002131	1	0	0	0	0	2	1	-6.70875347	115	10	1.1	0.9	2.0954	0.0000	0.0000	0.0000;
	3002132	1	11.94	3.38	0	12.36	2	1	-8.43558799	115	10	1.1	0.9	2.0954	0.0000	0.0000	0.0000;
	3002133	1	5.68	1.61	0	0	2	1	-44.3558282	161	11	1.1	0.9	22.8110	0.0000	0.0000	0.0000;
	3003001	1	0	0	0	0	3	1	-60.6995112	230	28	1.1	0.9	22.7571	0.0000	0.0000	0.0000;
	3003002	1	112.86	31.98	0	0	3	1	-62.5880288	115	28	1.1	0.9	22.6419	0.0000	0.0000	0.0000;
	3003003	1	0	0	0	0	3	1	15.9872728	115	27	1.1	0.9	2.1665	0.0000	0.0000	0.0000;
	3003004	2	0	0	0	0	3	1	18.1582099	18	27	1.1	0.9	2.1665	0.0000	0.0000	0.0000;
	3003005	1	7.34	2.08	0	0	3	1	-57.8829331	115	28	1.1	0.9	21.7636	0.0000	0.0000	0.0000;
	3003006	1	7.35	2.08	0	0	3	1	5.22246985	115	27	1.1	0.9	3.2032	0.0000	0.0000	0.0000;
	3003007	1	14.96	4.24	0	0	3	1	7.43082746	115	27	1.1	0.9	4.8397	0.0000	0.0000	0.0000;
	3003008	1	19.81	5.61	0	0	3	1	-7.25680542	115	27	1.1	0.9	5.3911	0.0000	0.0000	0.0000;
	3003009	1	12.54	3.55	0	0	3	1	7.31135198	115	28	1.1	0.9	-3.7487	0.0000	0.0000	0.0000;
	3003010	1	4.67	1.32	0	0	3	1	-55.4671135	115	28	1.1	0.9	21.4982	0.0000	0.0000	0.0000;
	3003011	1	27.14	7.69	0	0	3	1	-65.7924287	115	28	1.1	0.9	22.4225	0.0000	0.0000	0.0000;
	3003012	1	0.56	0.16	0	0	3	1	-65.5246033	115	28	1.1	0.9	22.5066	0.0000	0.0000	0.0000;
	3003013	1	64.56	18.29	0	77.48	3	1	3.39802568	115	27	1.1	0.9	4.8631	0.0000	0.0000	0.0000;
	3003014	1	22	6.23	0	0	3	1	-56.1559315	115	28	1.1	0.9	21.3421	0.0000	0.0000	0.0000;
	3003015	1	5.36	1.52	0	0	3	1	16.7287386	115	27	1.1	0.9	0.8956	0.0000	0.0000	0.0000;
	3003016	1	0	0	0	0	3	1	11.2590838	115	27	1.1	0.9	3.7726	0.0000	0.0000	0.0000;
	3003017	2	0	0	0	0	3	1	18.3262403	18	27	1.1	0.9	3.7726	0.0000	0.0000	0.0000;
	3003018	1	0	0	0	0	3	1	8.69109952	230	27	1.1	0.9	0.8045	0.0000	0.0000	0.0000;
	3003019	1	0	0	0	26.09	3	1	9.28909921	115	27	1.1	0.9	0.0000	0.0000	0.0000	0.0000;
	3003020	2	0	0	0	0	3	1	14.5172209	13.8	27	1.1	0.9	0.8045	0.0000	0.0000	0.0000;
	3003021	1	1.94	0.55	0	0	3	1	-5.58417429	115	27	1.1	0.9	3.7713	0.0000	0.0000	0.0000;
	3003022	1	24.59	6.97	0	0	3	1	14.9538666	115	27	1.1	0.9	0.2347	0.0000	0.0000	0.0000;
	3003023	1	10.41	2.95	0	50.16	3	1	6.21134386	115	27	1.1	0.9	2.6474	0.0000	0.0000	0.0000;
	3003024	1	10.13	2.87	0	0	3	1	8.35335127	115	28	1.1	0.9	-1.1806	0.0000	0.0000	0.0000;
	3003025	1	13.67	3.87	0	0	3	1	-30.3956755	115	28	1.1	0.9	1.5291	0.0000	0.0000	0.0000;
	3003026	1	0	0	0	0	3	1	-14.505314	230	27	1.1	0.9	5.2926	0.0000	0.0000	0.0000;
	3003027	1	0	0	0	0	3	1	-13.080476	115	27	1.1	0.9	5.9312	0.0000	0.0000	0.0000;
	3003028	2	0	0	0	0	3	1	-10.8062985	18	27	1.1	0.9	5.2926	0.0000	0.0000	0.0000;
	3003029	1	4.87	1.38	0	0	3	1	-46.7457912	115	28	1.1	0.9	22.5607	0.0000	0.0000	0.0000;
	3003030	1	129.72	36.75	0	93.06	3	1	-3.55600211	115	27	1.1	0.9	-6.7717	0.0000	0.0000	0.0000;
	3003031	1	14.73	4.17	0	0	3	1	5.18404905	115	27	1.1	0.9	5.1381	0.0000	0.0000	0.0000;
	3003032	1	72.86	20.64	0	0	3	1	4.4540071	115	27	1.1	0.9	4.9754	0.0000	0.0000	0.0000;
	3003033	1	0	0	0	0	3	1	15.7172174	115	27	1.1	0.9	-0.0000	0.0000	0.0000	0.0000;
	3003034	2	0	0	0	0	3	1	16.4838658	22	27	1.1	0.9	-0.0000	0.0000	0.0000	0.0000;
	3003035	1	3.47	0.98	0	0	3	1	-25.2933799	115	28	1.1	0.9	10.5351	0.0000	0.0000	0.0000;
	3003036	1	5.8	1.64	0	0	3	1	-18.0981389	115	28	1.1	0.9	9.3931	0.0000	0.0000	0.0000;
	3003037	1	0	0	0	0	3	1	2.78852021	230	27	1.1	0.9	0.7178	0.0000	0.0000	0.0000;
	3003038	1	0	0	0	0	3	1	12.9745633	115	27	1.1	0.9	0.1234	0.0000	0.0000	0.0000;
	3003039	2	0	0	0	0	3	1	6.47556665	13.8	27	1.1	0.9	0.7178	0.0000	0.0000	0.0000;
	3003040	1	14.61	4.14	0	0	3	1	0.16262268	115	27	1.1	0.9	-5.1605	0.0000	0.0000	0.0000;
	3003041	1	0	0	0	0	3	1	-2.87667812	230	27	1.1	0.9	-8.7594	0.0000	0.0000	0.0000;
	3003042	1	8.75	2.48	0	0	3	1	18.4943174	115	27	1.1	0.9	-0.9658	0.0000	0.0000	0.0000;
	3003043	2	0	0	0	0	3	1	-2.84339025	13.8	27	1.1	0.9	-8.7594	0.0000	0.0000	0.0000;
	3003044	2	0	0	0	0	3	1	-1.26516935	13.8	27	1.1	0.9	-8.7594	0.0000	0.0000	0.0000;
	3003045	2	0	0	0	0	3	1	1.65266497	13.8	27	1.1	0.9	-8.7594	0.0000	0.0000	0.0000;
	3003046	1	0	0	0	376.63	3	1	-12.273186	230	27	1.1	0.9	25.8266	0.0000	0.0000	0.0000;
	3003047	1	0	0	0	102.99	3	1	11.2248445	115	27	1.1	0.9	-1.0698	0.0000	0.0000	0.0000;
	3003048	2	0	0	0	0	3	1	-23.8598377	500	27	1.1	0.9	23.8902	0.0000	0.0000	0.0000;
	3003049	1	10.58	3	0	0	3	1	1.77846478	115	27	1.1	0.9	3.2026	0.0000	0.0000	0.0000;
	3003050	1	0	0	0	32.43	3	1	0.552416343	230	28	1.1	0.9	7.6699	0.0000	0.0000	0.0000;
	3003051	1	145.29	41.17	0	60.74	3	1	2.72882764	115	28	1.1	0.9	7.0117	0.0000	0.0000	0.0000;
	3003052	1	8.08	2.29	0	0	3	1	-60.0112918	115	28	1.1	0.9	22.0735	0.0000	0.0000	0.0000;
	3003053	1	0	0	0	0	3	1	-0.65918324	230	27	1.1	0.9	7.5427	0.0000	0.0000	0.0000;
	3003054	1	0	0	0	0	3	1	3.2812104	115	27	1.1	0.9	5.9211	0.0000	0.0000	0.0000;
	3003055	2	0	0	0	0	3	1	3.47631428	13.8	27	1.1	0.9	7.5427	0.0000	0.0000	0.0000;
	3003056	2	0	0	0	0	3	1	7.15106344	13.8	27	1.1	0.9	7.5427	0.0000	0.0000	0.0000;
	3003057	2	0	0	0	0	3	1	6.14629486	13.8	27	1.1	0.9	0.0000	0.0000	0.0000	0.0000;
	3003058	1	0	0	0	0	3	1	3.62758554	230	27	1.1	0.9	-0.0000	0.0000	0.0000	0.0000;
	3003059	1	0	0	0	0	3	1	20.7337181	115	27	1.1	0.9	1.4641	0.0000	0.0000	0.0000;
	3003060	2	0	0	0	0	3	1	14.4460715	18	27	1.1	0.9	-0.0000	0.0000	0.0000	0.0000;
	3003061	2	0	0	0	0	3	1	3.62758554	18	27	1.1	0.9	-0.0000	0.0000	0.0000	0.0000;
	3003062	2	0	0	0	0	3	1	3.62758554	18	27	1.1	0.9	-0.0000	0.0000	0.0000	0.0000;
	3003063	2	0	0	0	0	3	1	4.23814852	18	27	1.1	0.9	-0.0000	0.0000	0.0000	0.0000;
	3003064	1	0	0	0	0	3	1	15.5416838	115	27	1.1	0.9	0.0907	0.0000	0.0000	0.0000;
	3003065	2	0	0	0	0	3	1	23.7580532	18	27	1.1	0.9	0.0907	0.0000	0.0000	0.0000;
	3003066	1	22.03	6.24	0	0	3	1	-17.286044	115	28	1.1	0.9	23.9552	0.0000	0.0000	0.0000;
	3003067	1	0	0	0	0	3	1	14.192322	115	27	1.1	0.9	3.4420	0.0000	0.0000	0.0000;
	3003068	2	0	0	0	0	3	1	18.3382446	20	27	1.1	0.9	3.4420	0.0000	0.0000	0.0000;
	3003069	1	3.81	1.08	0	0	3	1	1.60888223	115	27	1.1	0.9	5.0649	0.0000	0.0000	0.0000;
	3003070	1	0	0	0	0	3	1	12.3679225	115	27	1.1	0.9	4.2528	0.0000	0.0000	0.0000;
	3003071	2	0	0	0	0	3	1	18.5534523	24	27	1.1	0.9	4.2528	0.0000	0.0000	0.0000;
	3003072	1	5.98	1.7	0	0	3	1	-3.5174667	115	27	1.1	0.9	-9.1093	0.0000	0.0000	0.0000;
	3003073	1	0	0	0	0	3	1	-50.4092079	115	28	1.1	0.9	21.0836	0.0000	0.0000	0.0000;
	3003074	2	0	0	0	0	3	1	-47.0458104	13.8	28	1.1	0.9	21.0836	0.0000	0.0000	0.0000;
	3003075	1	12.18	3.45	0	0	3	1	-4.62718701	115	28	1.1	0.9	-7.1899	0.0000	0.0000	0.0000;
	3003076	1	10.79	3.06	0	0	3	1	-52.7127146	115	28	1.1	0.9	21.2412	0.0000	0.0000	0.0000;
	3003077	1	68.66	19.45	0	0	3	1	3.61270218	115	27	1.1	0.9	4.8725	0.0000	0.0000	0.0000;
	3003078	1	0	0	0	0	3	1	2.24441865	230	27	1.1	0.9	-0.0000	0.0000	0.0000	0.0000;
	3003079	1	0	0	0	0	3	1	7.86833172	161	27	1.1	0.9	-1.7523	0.0000	0.0000	0.0000;
	3003080	1	0	0	0	0	3	1	11.6348231	115	27	1.1	0.9	-0.3687	0.0000	0.0000	0.0000;
	3003081	2	0	0	0	0	3	1	4.09869668	20	27	1.1	0.9	-0.0000	0.0000	0.0000	0.0000;
	3003082	1	0	0	0	0	3	1	-1.78513402	230	27	1.1	0.9	12.6127	0.0000	0.0000	0.0000;
	3003083	1	0	0	0	0	3	1	6.7744225	115	27	1.1	0.9	6.7710	0.0000	0.0000	0.0000;
	3003084	2	0	0	0	0	3	1	11.5334705	13.8	27	1.1	0.9	12.6127	0.0000	0.0000	0.0000;
	3003085	1	0	0	0	0	3	1	15.6130508	115	27	1.1	0.9	0.3369	0.0000	0.0000	0.0000;
	3003086	2	0	0	0	0	3	1	24.8863727	13.2	27	1.1	0.9	0.3369	0.0000	0.0000	0.0000;
	3003087	2	0	0	0	0	3	1	23.9955666	13.2	27	1.1	0.9	0.3369	0.0000	0.0000	0.0000;
	3003088	1	0	0	0	81.1	3	1	-9.28945302	230	27	1.1	0.9	6.1718	0.0000	0.0000	0.0000;
	3003089	1	0	0	0	0	3	1	-12.5277095	161	27	1.1	0.9	7.4419	0.0000	0.0000	0.0000;
	3003090	1	0	0	0	0	3	1	-12.4087938	161	27	1.1	0.9	7.0408	0.0000	0.0000	0.0000;
	3003091	1	0	0	0	82.39	3	1	-12.2482993	115	27	1.1	0.9	6.4994	0.0000	0.0000	0.0000;
	3003092	2	0	0	0	0	3	1	0.40499287	13.8	27	1.1	0.9	6.1718	0.0000	0.0000	0.0000;
	3003093	1	5.05	1.43	0	0	3	1	-57.4614273	115	28	1.1	0.9	21.7192	0.0000	0.0000	0.0000;
	3003094	1	0	0	0	0	3	1	9.32827856	115	27	1.1	0.9	4.8288	0.0000	0.0000	0.0000;
	3003095	2	0	0	0	0	3	1	20.5112138	18	27	1.1	0.9	4.8288	0.0000	0.0000	0.0000;
	3003096	1	0	0	0	0	3	1	16.7820163	230	27	1.1	0.9	0.7773	0.0000	0.0000	0.0000;
	3003097	1	0	0	0	0	3	1	22.4465941	115	27	1.1	0.9	0.4458	0.0000	0.0000	0.0000;
	3003098	2	0	0	0	0	3	1	29.0662314	13.8	27	1.1	0.9	0.7773	0.0000	0.0000	0.0000;
	3003099	1	12.08	3.42	0	0	3	1	2.04972637	115	27	1.1	0.9	5.0862	0.0000	0.0000	0.0000;
	3003100	1	8.53	2.42	0	0	3	1	-7.73886502	115	27	1.1	0.9	5.9136	0.0000	0.0000	0.0000;
	3003101	1	9.43	2.67	0	0	3	1	-43.1116779	115	28	1.1	0.9	-12.3906	0.0000	0.0000	0.0000;
	3003102	1	75.26	21.32	0	0	3	1	-12.3333217	115	27	1.1	0.9	6.2661	0.0000	0.0000	0.0000;
	3003103	1	39.32	11.14	0	0	3	1	12.9437436	115	27	1.1	0.9	3.0467	0.0000	0.0000	0.0000;
	3003104	1	0	0	0	0	3	1	-46.4518405	115	28	1.1	0.9	1.6598	0.0000	0.0000	0.0000;
	3003105	2	0	0	0	0	3	1	-40.7584448	13.2	28	1.1	0.9	1.6598	0.0000	0.0000	0.0000;
	3003106	2	0	0	0	0	3	1	-44.1175703	13.2	28	1.1	0.9	1.6598	0.0000	0.0000	0.0000;
	3003107	1	14.87	4.21	0	0	3	1	-61.8412035	115	28	1.1	0.9	22.3985	0.0000	0.0000	0.0000;
	3003108	1	23.52	6.66	0	0	3	1	-53.7169631	115	28	1.1	0.9	22.9788	0.0000	0.0000	0.0000;
	3003109	1	0	0	0	0	3	1	26.6119685	115	27	1.1	0.9	0.2020	0.0000	0.0000	0.0000;
	3003110	2	0	0	0	0	3	1	37.2291056	13.8	27	1.1	0.9	0.2020	0.0000	0.0000	0.0000;
	3003111	1	0	0	0	0	3	1	22.0713137	115	27	1.1	0.9	0.2676	0.0000	0.0000	0.0000;
	3003112	2	0	0	0	0	3	1	32.9951963	18	27	1.1	0.9	0.2676	0.0000	0.0000	0.0000;
	3003113	2	0	0	0	0	3	1	33.0080535	18	27	1.1	0.9	0.2676	0.0000	0.0000	0.0000;
	3003114	1	98.31	27.85	0	0	3	1	4.51890567	115	27	1.1	0.9	-1.6976	0.0000	0.0000	0.0000;
	3003115	1	9.58	2.71	0	0	3	1	13.0517256	115	27	1.1	0.9	0.3577	0.0000	0.0000	0.0000;
	3003116	1	0	0	0	0	3	1	18.6225239	115	27	1.1	0.9	0.1455	0.0000	0.0000	0.0000;
	3003117	2	0	0	0	0	3	1	22.705381	13.8	27	1.1	0.9	0.1455	0.0000	0.0000	0.0000;
	3003118	2	0	0	0	0	3	1	23.9909092	13.8	27	1.1	0.9	0.1455	0.0000	0.0000	0.0000;
	3003119	1	0	0	0	0	3	1	-45.0530418	115	28	1.1	0.9	19.9039	0.0000	0.0000	0.0000;
	3003120	2	0	0	0	0	3	1	-42.9924151	13.8	28	1.1	0.9	19.9039	0.0000	0.0000	0.0000;
	3003121	1	0	0	0	0	3	1	16.7841332	115	27	1.1	0.9	0.8181	0.0000	0.0000	0.0000;
	3003122	2	0	0	0	0	3	1	28.6876866	18	27	1.1	0.9	0.8181	0.0000	0.0000	0.0000;
	3003123	1	66.07	18.72	0	0	3	1	-53.9041945	115	28	1.1	0.9	21.2286	0.0000	0.0000	0.0000;
	3003124	1	64.54	18.29	0	44.55	3	1	-64.0084601	115	28	1.1	0.9	22.3108	0.0000	0.0000	0.0000;
	3003125	1	91.26	25.86	0	0	3	1	-12.0207324	115	27	1.1	0.9	6.3336	0.0000	0.0000	0.0000;
	3003126	1	9.96	2.82	0	40.24	3	1	-55.7388154	115	28	1.1	0.9	21.5327	0.0000	0.0000	0.0000;
	3003127	2	0	0	0	0	3	1	18.0245859	115	27	1.1	0.9	1.6475	0.0000	0.0000	0.0000;
	3003128	1	2.82	0.8	0	0	3	1	15.896785	115	27	1.1	0.9	0.4890	0.0000	0.0000	0.0000;
	3003129	2	0	0	0	0	3	1	14.857739	115	27	1.1	0.9	-0.0000	0.0000	0.0000	0.0000;
	3003130	1	92.15	26.11	0	0	3	1	23.2401583	115	27	1.1	0.9	3.7940	0.0000	0.0000	0.0000;
	3003131	2	0	0	0	0	3	1	11.2034279	115	27	1.1	0.9	4.3130	0.0000	0.0000	0.0000;
	3003132	1	9.56	2.71	0	0	3	1	-3.92351929	115	28	1.1	0.9	-2.5729	0.0000	0.0000	0.0000;
	3003133	2	0	0	0	0	3	1	11.2431162	230	27	1.1	0.9	-2.6622	0.0000	0.0000	0.0000;
	3003134	1	0	0	0	0	3	1	9.28633344	161	27	1.1	0.9	-1.7818	0.0000	0.0000	0.0000;
	3003135	1	0	0	0	0	3	1	12.4648772	161	27	1.1	0.9	-0.9137	0.0000	0.0000	0.0000;
	3003136	1	46.96	13.3	0	0	3	1	15.7216865	115	27	1.1	0.9	-0.0243	0.0000	0.0000	0.0000;
	3003137	2	0	0	0	0	3	1	8.51756547	115	27	1.1	0.9	5.5387	0.0000	0.0000	0.0000;
	3003138	1	10.95	3.1	0	0	3	1	-4.0462615	115	28	1.1	0.9	-11.7389	0.0000	0.0000	0.0000;